199

Si        22.02169       22.02167       27.12260
Si        22.02167       27.12260       22.02168
Si        21.95263       27.15745       27.15745
Si        21.58744       26.28078       32.57489
Si        21.58742       32.57488       26.28079
Si        27.12260       22.02168       22.02167
Si        27.15746       21.95263       27.15744
Si        26.28080       21.58741       32.57487
Si        27.15744       27.15746       21.95261
Si        27.18603       27.18603       27.18602
Si        27.01603       27.01599       32.32892
Si        26.28079       32.57488       21.58742
Si        27.01601       32.32893       27.01601
Si        32.57490       21.58744       26.28077
Si        32.57487       26.28081       21.58739
Si        32.32894       27.01603       27.01597
Si        23.30673       23.30673       23.30673
Si        23.31045       23.31043       28.38588
Si        23.31043       28.38588       23.31043
Si        23.25487       28.46964       28.46965
Si        28.38588       23.31044       23.31042
Si        28.46966       23.25486       28.46963
Si        28.46964       28.46966       23.25484
Si        28.48654       28.48654       28.48653
Si        19.43244       24.31610       27.34965
Si        24.31612       19.43243       27.34963
Si        24.59112       24.59112       21.98852
Si        24.60568       24.60567       27.15515
Si        24.46691       24.46688       32.24265
Si        24.53205       29.67287       22.00157
Si        24.52320       29.78061       27.16204
Si        24.70915       29.80411       32.36340
Si        29.67286       24.53206       22.00156
Si        29.78063       24.52321       27.16203
Si        29.80412       24.70910       32.36338
Si        29.83167       29.83169       22.10275
Si        29.78818       29.78816       27.20870
Si        30.01457       30.01465       32.40116
Si        20.71013       25.86250       23.26408
Si        20.68101       25.81039       28.43205
Si        25.86251       20.71013       23.26406
Si        25.81041       20.68099       28.43203
Si        25.88267       25.88267       23.28925
Si        25.87727       25.87726       28.48810
Si        25.70949       25.70946       33.56594
Si        25.79109       31.03917       23.18416
Si        25.87363       31.04614       28.44494
Si        31.03916       25.79110       23.18414
Si        31.04616       25.87365       28.44493
Si        31.09876       31.09878       23.43161
Si        31.10825       31.10815       28.55653
Si        21.98852       24.59112       24.59112
Si        22.00159       24.53205       29.67286
Si        22.00158       29.67286       24.53206
Si        22.10277       29.83168       29.83167
Si        27.34965       19.43244       24.31610
Si        27.34962       24.31611       19.43242
Si        27.15516       24.60567       24.60566
Si        27.16205       24.52319       29.78060
Si        27.16204       29.78062       24.52319
Si        27.20871       29.78817       29.78816
Si        32.24266       24.46690       24.46686
Si        32.36342       24.70916       29.80410
Si        32.36339       29.80412       24.70910
Si        32.40115       30.01456       30.01467
Si        19.43243       27.34964       24.31612
Si        24.59113       21.98852       24.59112
Si        24.53207       22.00157       29.67285
Si        24.31609       27.34964       19.43243
Si        24.60567       27.15515       24.60566
Si        24.52321       27.16204       29.78061
Si        24.46689       32.24265       24.46689
Si        24.70913       32.36340       29.80410
Si        29.67287       22.00159       24.53204
Si        29.83170       22.10276       29.83165
Si        29.78061       27.16205       24.52317
Si        29.78817       27.20870       29.78817
Si        29.80412       32.36341       24.70914
Si        30.01466       32.40114       30.01458
Si        23.26408       20.71013       25.86250
Si        23.26406       25.86250       20.71013
Si        23.28926       25.88267       25.88267
Si        23.18418       25.79108       31.03916
Si        23.18416       31.03916       25.79109
Si        23.43163       31.09876       31.09876
Si        28.43206       20.68100       25.81038
Si        28.43203       25.81040       20.68098
Si        28.48811       25.87726       25.87725
Si        28.44496       25.87361       31.04613
Si        28.44495       31.04614       25.87363
Si        28.55652       31.10823       31.10817
Si        33.56594       25.70949       25.70944
Si        20.71014       23.26407       25.86251
Si        20.68100       28.43204       25.81040
Si        25.86249       23.26407       20.71013
Si        25.88268       23.28926       25.88266
Si        25.79111       23.18415       31.03915
Si        25.81038       28.43204       20.68099
Si        25.87726       28.48811       25.87725
Si        25.87365       28.44495       31.04614
Si        25.70947       33.56594       25.70947
Si        31.03917       23.18418       25.79107
Si        31.09879       23.43162       31.09873
Si        31.04613       28.44495       25.87360
Si        31.10816       28.55651       31.10825
F         21.05872       21.05870       28.11562
F         21.05870       28.11561       21.05872
F         20.20278       26.99882       31.95376
F         22.12878       27.15582       33.89932
F         21.06448       24.79925       33.18542
F         21.06447       33.18542       24.79926
F         22.12875       33.89932       27.15583
F         20.20276       31.95375       26.99881
F         28.11561       21.05871       21.05870
F         26.99885       20.20276       31.95374
F         24.79927       21.06444       33.18539
F         27.15582       22.12874       33.89932
F         27.80588       27.80575       33.54200
F         24.79927       33.18544       21.06448
F         26.99879       31.95374       20.20275
F         27.15586       33.89930       22.12874
F         27.80578       33.54201       27.80585
F         33.18545       21.06450       24.79924
F         31.95377       20.20277       26.99877
F         33.89932       22.12877       27.15582
F         33.18541       24.79928       21.06443
F         33.89930       27.15586       22.12870
F         31.95372       26.99882       20.20273
F         33.54201       27.80590       27.80571
F         22.33383       22.33383       22.33383
F         18.86600       23.18492       28.46389
F         18.07070       24.99491       26.66352
F         24.99493       18.07070       26.66350
F         23.18495       18.86599       28.46388
F         23.47058       23.47055       33.16610
F         23.48001       30.58746       21.05422
F         25.74631       30.74353       33.29793
F         23.72993       28.94248       33.40432
F         30.58745       23.48003       21.05419
F         30.74352       25.74625       33.29795
F         28.94249       23.72986       33.40427
F         28.96231       30.85358       21.11676
F         30.85356       28.96234       21.11676
F         29.40260       29.40284       33.82554
F         31.12995       31.12999       32.99038
F         19.76081       24.90179       22.25606
F         19.66733       26.73599       29.40391
F         24.90179       19.76081       22.25605
F         26.73602       19.66731       29.40389
F         24.73398       26.66004       34.55357
F         26.66007       24.73394       34.55357
F         32.09074       32.09077       22.49742
F         32.11760       32.11747       27.66774
F         21.05423       23.48002       30.58746
F         21.05421       30.58746       23.48003
F         21.11678       28.96232       30.85356
F         21.11679       30.85357       28.96232
F         28.46389       18.86600       23.18491
F         26.66353       18.07070       24.99491
F         26.66349       24.99491       18.07069
F         28.46386       23.18493       18.86597
F         33.16611       23.47058       23.47053
F         33.29794       25.74632       30.74352
F         33.40435       23.72996       28.94247
F         33.29795       30.74353       25.74626
F         33.40431       28.94249       23.72988
F         32.99037       31.12993       31.13001
F         33.82552       29.40256       29.40288
F         18.07070       26.66351       24.99493
F         18.86599       28.46388       23.18494
F         23.48004       21.05421       30.58745
F         24.99489       26.66351       18.07069
F         23.18491       28.46388       18.86599
F         23.47056       33.16611       23.47056
F         23.72990       33.40431       28.94248
F         25.74628       33.29795       30.74351
F         30.58747       21.05423       23.48000
F         30.85359       21.11678       28.96228
F         28.96235       21.11677       30.85354
F         28.94249       33.40435       23.72994
F         30.74355       33.29792       25.74631
F         29.40283       33.82552       29.40263
F         31.13000       32.99036       31.12996
F         22.25606       19.76081       24.90179
F         22.25604       24.90179       19.76082
F         22.49744       32.09074       32.09075
F         29.40392       19.66732       26.73598
F         29.40388       26.73600       19.66729
F         27.66772       32.11758       32.11748
F         34.55357       26.66007       24.73391
F         34.55359       24.73398       26.66001
F         19.76082       22.25605       24.90180
F         19.66732       29.40390       26.73601
F         24.90178       22.25605       19.76081
F         26.73598       29.40390       19.66730
F         24.73396       34.55358       26.66004
F         26.66005       34.55358       24.73395
F         32.09078       22.49743       32.09071
F         32.11747       27.66771       32.11760
