573

Si        11.39676       16.36709       21.87679
Si        11.39675       21.87677       16.36710
Si        11.40829       21.67703       21.67704
Si        11.39006       21.42934       27.00043
Si        11.39005       27.00043       21.42934
Si        16.36709       11.39676       21.87678
Si        16.50099       16.50099       16.50099
Si        16.53989       16.53989       21.70179
Si        16.56251       16.56251       26.86841
Si        16.36707       21.87678       11.39676
Si        16.53988       21.70179       16.53989
Si        16.53760       21.68068       21.68068
Si        16.54149       21.69445       26.85155
Si        16.56250       26.86841       16.56251
Si        16.54149       26.85155       21.69444
Si        16.50804       26.79649       26.79649
Si        21.87676       11.39675       16.36709
Si        21.67703       11.40829       21.67702
Si        21.42935       11.39005       27.00042
Si        21.87677       16.36708       11.39675
Si        21.70178       16.53989       16.53988
Si        21.68068       16.53759       21.68067
Si        21.69445       16.54149       26.85154
Si        21.67702       21.67703       11.40828
Si        21.68067       21.68068       16.53759
Si        21.68034       21.68034       21.68033
Si        21.69014       21.69013       26.83097
Si        21.84489       21.84487       31.97606
Si        21.42933       27.00043       11.39004
Si        21.69444       26.85155       16.54148
Si        21.69013       26.83098       21.69012
Si        21.66481       26.80888       26.80887
Si        21.84487       31.97607       21.84486
Si        27.00043       11.39005       21.42932
Si        26.86840       16.56250       16.56250
Si        26.85155       16.54148       21.69443
Si        26.79650       16.50803       26.79647
Si        27.00041       21.42934       11.39004
Si        26.85155       21.69444       16.54147
Si        26.83098       21.69013       21.69011
Si        26.80889       21.66481       26.80886
Si        26.79648       26.79649       16.50801
Si        26.80888       26.80888       21.66479
Si        26.81874       26.81873       26.81871
Si        31.97607       21.84487       21.84485
Si        12.68371       17.82711       17.82712
Si        12.69224       17.80729       22.98666
Si        12.69224       22.98665       17.80729
Si        12.68893       22.96028       22.96028
Si        12.64902       22.86199       28.15267
Si        12.64901       28.15266       22.86199
Si        17.82710       12.68371       17.82711
Si        17.80729       12.69224       22.98665
Si        17.82710       17.82711       12.68371
Si        17.80314       17.80315       17.80314
Si        17.83170       17.83170       22.97391
Si        17.86039       17.86038       28.10061
Si        17.80728       22.98665       12.69224
Si        17.83170       22.97391       17.83170
Si        17.82017       22.96736       22.96736
Si        17.82624       22.99113       28.15219
Si        17.86038       28.10061       17.86038
Si        17.82623       28.15220       22.99112
Si        17.79252       28.08412       28.08411
Si        22.98665       12.69224       17.80728
Si        22.96028       12.68892       22.96027
Si        22.86200       12.64901       28.15265
Si        22.98664       17.80729       12.69223
Si        22.97391       17.83170       17.83169
Si        22.96736       17.82016       22.96735
Si        22.99114       17.82623       28.15219
Si        22.96027       22.96028       12.68891
Si        22.96736       22.96736       17.82015
Si        22.96429       22.96429       22.96428
Si        22.97945       22.97944       28.11568
Si        22.86198       28.15266       12.64900
Si        22.99112       28.15220       17.82621
Si        22.97944       28.11569       22.97943
Si        22.94613       28.09351       28.09350
Si        28.15266       12.64900       22.86197
Si        28.10060       17.86038       17.86037
Si        28.15220       17.82623       22.99111
Si        28.08413       17.79251       28.08410
Si        28.15265       22.86199       12.64899
Si        28.15219       22.99112       17.82621
Si        28.11570       22.97944       22.97942
Si        28.09352       22.94612       28.09349
Si        28.08411       28.08412       17.79249
Si        28.09351       28.09351       22.94610
Si        13.82352       13.82353       16.84355
Si        13.97651       13.97651       21.72229
Si        13.95521       19.13808       16.53971
Si        13.96907       19.10416       21.68723
Si        13.99898       19.08146       26.81857
Si        13.96587       24.28481       16.54775
Si        13.95942       24.26273       21.66994
Si        13.92076       24.20797       26.83956
Si        13.84250       29.41719       21.46666
Si        19.13807       13.95522       16.53970
Si        19.10416       13.96907       21.68723
Si        19.08147       13.99897       26.81856
Si        19.11630       19.11631       11.41585
Si        19.10422       19.10423       16.53778
Si        19.11175       19.11175       21.68070
Si        19.13529       19.13528       26.82091
Si        18.97663       18.97662       31.97055
Si        19.08609       24.26277       11.40074
Si        19.11549       24.26133       16.54966
Si        19.11104       24.25308       21.68615
Si        19.09904       24.24809       26.82332
Si        19.11869       29.38795       16.56070
Si        19.12727       29.43097       21.69168
Si        19.10181       29.37286       26.87615
Si        24.28480       13.96588       16.54773
Si        24.26273       13.95942       21.66992
Si        24.20797       13.92075       26.83955
Si        24.26276       19.08611       11.40073
Si        24.26132       19.11550       16.54965
Si        24.25308       19.11104       21.68615
Si        24.24810       19.09903       26.82331
Si        24.23449       24.23451       11.39559
Si        24.24779       24.24780       16.52074
Si        24.24910       24.24910       21.67791
Si        24.25302       24.25301       26.82008
Si        24.36016       29.40878       16.55581
Si        24.28051       29.38139       21.67454
Si        24.23158       29.39119       26.84116
Si        29.41719       13.84250       21.46664
Si        29.38794       19.11869       16.56069
Si        29.43097       19.12727       21.69167
Si        29.37287       19.10180       26.87614
Si        29.40878       24.36017       16.55581
Si        29.38139       24.28051       21.67453
Si        29.39120       24.23157       26.84115
Si        10.12658       20.38458       22.96795
Si        15.22848       15.22849       17.85910
Si        15.25514       15.25514       23.00910
Si        15.43588       15.43587       28.44380
Si        15.23901       20.44826       12.67692
Si        15.25774       20.40606       17.82387
Si        15.25501       20.39394       22.97246
Si        15.25852       20.36942       28.10920
Si        15.41463       25.51578       12.48177
Si        15.27709       25.55176       17.81694
Si        15.24167       25.54920       22.95727
Si        15.21514       25.53194       28.08516
Si        20.38458       10.12658       22.96794
Si        20.44825       15.23902       12.67692
Si        20.40605       15.25774       17.82386
Si        20.39394       15.25501       22.97245
Si        20.36943       15.25851       28.10919
Si        20.39718       20.39719       12.69631
Si        20.39311       20.39311       17.82408
Si        20.39665       20.39664       22.96797
Si        20.40998       20.40997       28.12593
Si        20.34956       25.55486       12.69104
Si        20.41222       25.54823       17.83048
Si        20.39544       25.54131       22.96699
Si        20.37442       25.54139       28.10181
Si        20.39346       30.69732       17.81714
Si        20.45485       30.68807       22.97440
Si        25.51580       15.41468       12.48175
Si        25.55175       15.27709       17.81693
Si        25.54921       15.24167       22.95726
Si        25.53195       15.21513       28.08514
Si        25.55484       20.34957       12.69104
Si        25.54823       20.41222       17.83047
Si        25.54132       20.39544       22.96698
Si        25.54140       20.37441       28.10181
Si        25.52435       25.52436       12.66084
Si        25.52512       25.52512       17.81261
Si        25.53172       25.53172       22.96328
Si        25.53234       25.53233       28.12200
Si        25.81328       30.67189       17.66411
Si        25.68273       30.66811       22.82786
Si        30.69732       20.39346       17.81712
Si        30.68807       20.45485       22.97439
Si        30.67189       25.81328       17.66411
Si        30.66811       25.68273       22.82785
Si        11.41586       19.11631       19.11632
Si        11.40075       19.08610       24.26278
Si        11.40074       24.26278       19.08610
Si        11.39561       24.23451       24.23451
Si        16.84353       13.82353       13.82353
Si        16.53970       13.95522       19.13808
Si        16.54776       13.96588       24.28481
Si        16.53969       19.13808       13.95521
Si        16.53778       19.10423       19.10423
Si        16.54967       19.11550       24.26133
Si        16.56072       19.11870       29.38795
Si        16.54775       24.28481       13.96588
Si        16.54966       24.26133       19.11549
Si        16.52075       24.24780       24.24780
Si        16.55584       24.36017       29.40878
Si        16.56071       29.38795       19.11870
Si        16.55583       29.40879       24.36017
Si        21.72227       13.97651       13.97650
Si        21.68723       13.96907       19.10415
Si        21.66994       13.95942       24.26272
Si        21.46667       13.84250       29.41719
Si        21.68722       19.10416       13.96907
Si        21.68071       19.11175       19.11174
Si        21.68616       19.11104       24.25307
Si        21.69170       19.12727       29.43096
Si        21.66993       24.26273       13.95941
Si        21.68616       24.25308       19.11103
Si        21.67793       24.24910       24.24909
Si        21.67457       24.28051       29.38138
Si        21.46665       29.41719       13.84249
Si        21.69168       29.43097       19.12726
Si        21.67456       29.38139       24.28050
Si        26.81856       13.99897       19.08144
Si        26.83956       13.92075       24.20795
Si        26.81855       19.08146       13.99896
Si        26.82091       19.13528       19.13527
Si        26.82333       19.09903       24.24807
Si        26.87617       19.10180       29.37285
Si        26.83955       24.20796       13.92073
Si        26.82332       24.24809       19.09901
Si        26.82010       24.25301       24.25300
Si        26.84118       24.23157       29.39117
Si        26.87615       29.37286       19.10178
Si        26.84118       29.39119       24.23155
Si        31.97055       18.97661       18.97659
Si        13.82352       16.84354       13.82353
Si        13.95521       16.53970       19.13808
Si        13.96588       16.54775       24.28482
Si        13.97650       21.72228       13.97651
Si        13.96907       21.68723       19.10416
Si        13.95943       21.66994       24.26273
Si        13.84251       21.46666       29.41720
Si        13.99897       26.81856       19.08146
Si        13.92075       26.83956       24.20797
Si        19.11631       11.41586       19.11632
Si        19.08611       11.40075       24.26277
Si        19.13807       16.53970       13.95521
Si        19.10423       16.53778       19.10423
Si        19.11550       16.54966       24.26132
Si        19.11871       16.56071       29.38794
Si        19.10415       21.68723       13.96907
Si        19.11175       21.68071       19.11175
Si        19.11104       21.68616       24.25307
Si        19.12728       21.69169       29.43096
Si        19.08145       26.81856       13.99897
Si        19.13528       26.82092       19.13528
Si        19.09903       26.82332       24.24808
Si        19.10181       26.87616       29.37286
Si        18.97661       31.97055       18.97661
Si        24.26278       11.40075       19.08608
Si        24.23451       11.39561       24.23450
Si        24.28481       16.54776       13.96587
Si        24.26132       16.54966       19.11549
Si        24.24780       16.52075       24.24779
Si        24.36018       16.55583       29.40877
Si        24.26272       21.66994       13.95941
Si        24.25308       21.68616       19.11103
Si        24.24910       21.67793       24.24909
Si        24.28052       21.67456       29.38138
Si        24.20795       26.83956       13.92073
Si        24.24808       26.82332       19.09901
Si        24.25302       26.82009       24.25300
Si        24.23158       26.84117       29.39118
Si        29.38794       16.56071       19.11869
Si        29.40879       16.55583       24.36015
Si        29.41718       21.46665       13.84248
Si        29.43097       21.69168       19.12725
Si        29.38140       21.67456       24.28049
Si        29.37286       26.87615       19.10178
Si        29.39120       26.84117       24.23155
Si        12.67692       15.23902       20.44826
Si        12.48178       15.41462       25.51577
Si        12.67692       20.44825       15.23903
Si        12.69632       20.39719       20.39720
Si        12.69106       20.34957       25.55486
Si        12.48177       25.51573       15.41459
Si        12.69105       25.55486       20.34958
Si        12.66086       25.52437       25.52437
Si        17.85909       15.22849       15.22848
Si        17.82387       15.25774       20.40606
Si        17.81695       15.27709       25.55176
Si        17.82386       20.40606       15.25774
Si        17.82408       20.39311       20.39311
Si        17.83049       20.41222       25.54823
Si        17.81716       20.39347       30.69732
Si        17.81694       25.55176       15.27709
Si        17.83048       25.54823       20.41222
Si        17.81263       25.52512       25.52512
Si        17.66414       25.81328       30.67189
Si        17.81715       30.69732       20.39346
Si        17.66414       30.67189       25.81328
Si        22.96795       10.12658       20.38457
Si        23.00909       15.25514       15.25512
Si        22.97246       15.25501       20.39393
Si        22.95728       15.24167       25.54920
Si        22.96793       20.38458       10.12657
Si        22.97245       20.39394       15.25500
Si        22.96797       20.39664       20.39663
Si        22.96700       20.39544       25.54130
Si        22.97443       20.45485       30.68806
Si        22.95726       25.54920       15.24166
Si        22.96700       25.54131       20.39543
Si        22.96331       25.53172       25.53170
Si        22.82789       25.68273       30.66810
Si        22.97441       30.68807       20.45484
Si        22.82788       30.66811       25.68272
Si        28.44379       15.43581       15.43590
Si        28.10919       15.25851       20.36941
Si        28.08516       15.21513       25.53192
Si        28.10919       20.36942       15.25849
Si        28.12594       20.40997       20.40995
Si        28.10183       20.37441       25.54137
Si        28.08515       25.53193       15.21511
Si        28.10182       25.54139       20.37439
Si        28.12203       25.53233       25.53231
Si        10.12658       22.96795       20.38458
Si        15.23902       12.67692       20.44826
Si        15.41462       12.48177       25.51576
Si        15.22848       17.85910       15.22849
Si        15.25774       17.82387       20.40606
Si        15.27710       17.81695       25.55176
Si        15.25513       23.00909       15.25513
Si        15.25501       22.97246       20.39394
Si        15.24167       22.95727       25.54921
Si        15.43583       28.44379       15.43589
Si        15.25851       28.10920       20.36942
Si        15.21514       28.08516       25.53193
Si        20.44824       12.67692       15.23902
Si        20.39719       12.69632       20.39719
Si        20.34958       12.69105       25.55485
Si        20.40605       17.82387       15.25773
Si        20.39311       17.82408       20.39311
Si        20.41223       17.83048       25.54822
Si        20.39348       17.81715       30.69732
Si        20.38457       22.96794       10.12657
Si        20.39393       22.97246       15.25500
Si        20.39664       22.96797       20.39664
Si        20.39545       22.96700       25.54131
Si        20.45487       22.97441       30.68806
Si        20.36941       28.10920       15.25850
Si        20.40997       28.12594       20.40996
Si        20.37442       28.10182       25.54138
Si        25.51570       12.48178       15.41454
Si        25.55485       12.69105       20.34956
Si        25.52437       12.66085       25.52435
Si        25.55176       17.81694       15.27708
Si        25.54823       17.83048       20.41221
Si        25.52513       17.81262       25.52511
Si        25.81329       17.66413       30.67188
Si        25.54920       22.95727       15.24165
Si        25.54131       22.96700       20.39543
Si        25.53172       22.96330       25.53170
Si        25.68274       22.82788       30.66810
Si        25.53193       28.08516       15.21511
Si        25.54139       28.10182       20.37439
Si        25.53233       28.12202       25.53231
Si        30.69732       17.81715       20.39345
Si        30.67190       17.66413       25.81326
Si        30.68807       22.97441       20.45483
Si        30.66812       22.82788       25.68271
H         10.74814       15.42307       22.78733
H         10.19979       16.95096       21.30424
H         10.19979       21.30422       16.95098
H         10.74811       22.78730       15.42308
H         10.80656       20.45097       27.92895
H         10.19471       22.00821       26.41398
H         10.19471       26.41397       22.00822
H         10.80655       27.92894       20.45097
H         16.95096       10.19979       21.30424
H         15.42307       10.74814       22.78732
H         16.95095       21.30423       10.19979
H         15.42305       22.78733       10.74814
H         22.78728       10.74810       15.42307
H         21.30421       10.19980       16.95097
H         22.00822       10.19471       26.41396
H         20.45097       10.80655       27.92893
H         22.78733       15.42306       10.74815
H         21.30422       16.95095       10.19979
H         22.76218       22.76217       32.66317
H         21.15090       21.15089       33.04500
H         22.00820       26.41397       10.19470
H         20.45095       27.92894       10.80654
H         21.15089       33.04500       21.15088
H         22.76217       32.66318       22.76215
H         27.92894       10.80655       20.45095
H         26.41397       10.19470       22.00819
H         26.41395       22.00821       10.19469
H         27.92893       20.45096       10.80653
H         27.66683       27.66682       27.66680
H         32.66318       22.76216       22.76214
H         33.04500       21.15088       21.15086
H         11.83455       16.97941       16.97942
H         11.77071       23.64027       29.03683
H         11.77070       29.03683       23.64027
H         16.97940       11.83456       16.97941
H         16.97940       16.97941       11.83456
H         16.94144       28.93096       28.93095
H         23.64028       11.77070       29.03682
H         23.64025       29.03683       11.77069
H         22.08795       28.93673       28.93671
H         29.03683       11.77070       23.64025
H         28.93097       16.94143       28.93094
H         29.03681       23.64026       11.77068
H         28.93674       22.08794       28.93671
H         28.93095       28.93096       16.94141
H         28.93673       28.93672       22.08792
H         14.51408       12.80245       16.06370
H         12.80244       14.51409       16.06370
H         13.09334       13.09334       17.88658
H         13.13283       13.13283       22.57990
H         13.16770       18.21263       27.66247
H         12.93313       30.04732       20.49935
H         14.50203       30.56602       22.05632
H         18.21264       13.16769       27.66246
H         18.37545       19.87086       10.45193
H         19.87086       18.37546       10.45193
H         18.04903       18.04902       32.63319
H         19.65883       19.65881       33.05556
H         18.24013       25.10836       10.55001
H         18.27225       30.24731       15.72687
H         19.92644       30.18101       27.78418
H         25.10834       18.24015       10.55000
H         24.98866       23.46591       10.44731
H         23.46590       24.98867       10.44731
H         23.68261       30.39671       15.75731
H         25.05594       30.23040       27.72136
H         30.56602       14.50202       22.05630
H         30.04732       12.93313       20.49933
H         30.24729       18.27225       15.72686
H         30.18101       19.92643       27.78417
H         30.39671       23.68262       15.75730
H         30.23041       25.05593       27.72135
H          9.28495       19.53681       22.11199
H          9.28304       21.23809       23.81627
H         14.44234       14.44233       28.10892
H         14.70705       16.40143       29.27289
H         16.40144       14.70704       29.27289
H         14.35794       19.63694       11.82732
H         14.55618       24.66418       11.65503
H         16.37702       26.23119       11.63494
H         14.52452       26.52460       12.99492
H         14.36925       26.40174       28.91343
H         21.23809        9.28304       23.81625
H         19.53681        9.28495       22.11198
H         19.63693       14.35795       11.82732
H         21.21936       31.53839       16.93985
H         19.70942       31.64421       23.74977
H         26.23117       16.37709       11.63492
H         24.66422       14.55620       11.65502
H         26.52468       14.52463       12.99490
H         26.40175       14.36924       28.91341
H         26.36890       26.36891       11.80539
H         25.22348       31.85261       18.27065
H         26.77857       31.24775       16.71727
H         25.00511       31.74641       23.52008
H         26.59560       31.34950       21.90041
H         31.53839       21.21936       16.93984
H         31.64421       19.70941       23.74976
H         31.24775       26.77857       16.71727
H         31.85260       25.22348       18.27064
H         31.34950       26.59560       21.90040
H         31.74641       25.00511       23.52008
H         10.45193       18.37546       19.87088
H         10.45192       19.87086       18.37548
H         10.55003       18.24014       25.10837
H         10.55003       25.10836       18.24014
H         10.44733       23.46592       24.98868
H         10.44732       24.98868       23.46592
H         16.06368       14.51409       12.80245
H         16.06368       12.80245       14.51409
H         17.88656       13.09334       13.09334
H         15.72690       18.27227       30.24732
H         15.75734       23.68262       30.39671
H         15.72688       30.24732       18.27227
H         15.75733       30.39671       23.68262
H         22.57988       13.13283       13.13282
H         20.49936       12.93314       30.04732
H         22.05633       14.50203       30.56601
H         20.49934       30.04732       12.93313
H         22.05631       30.56602       14.50202
H         27.66246       13.16769       18.21261
H         27.66246       18.21263       13.16768
H         27.78420       19.92644       30.18099
H         27.72139       25.05593       30.23038
H         27.78419       30.18100       19.92642
H         27.72138       30.23040       25.05591
H         33.05556       19.65881       19.65879
H         32.63319       18.04901       18.04900
H         13.09333       17.88657       13.09334
H         12.80244       16.06369       14.51409
H         14.51408       16.06369       12.80245
H         13.13282       22.57989       13.13283
H         14.50204       22.05632       30.56602
H         12.93315       20.49935       30.04733
H         13.16769       27.66247       18.21263
H         19.87085       10.45192       18.37547
H         18.37546       10.45194       19.87087
H         18.24015       10.55002       25.10836
H         18.27228       15.72688       30.24731
H         18.21262       27.66247       13.16769
H         19.92645       27.78419       30.18100
H         18.04901       32.63319       18.04901
H         19.65881       33.05556       19.65880
H         25.10836       10.55003       18.24011
H         24.98868       10.44732       23.46591
H         23.46592       10.44732       24.98866
H         23.68263       15.75732       30.39670
H         25.05594       27.72138       30.23039
H         30.24732       15.72689       18.27226
H         30.39672       15.75732       23.68260
H         30.56601       22.05632       14.50201
H         30.04731       20.49935       12.93311
H         30.18100       27.78419       19.92641
H         30.23041       27.72137       25.05590
H         11.82732       14.35795       19.63695
H         11.65503       14.55619       24.66415
H         11.63497       16.37699       26.23122
H         12.99494       14.52444       26.52453
H         11.82731       19.63694       14.35796
H         12.99493       26.52443       14.52434
H         11.63496       26.23122       16.37694
H         11.65501       24.66409       14.55619
H         11.80541       26.36891       26.36892
H         16.93988       21.21937       31.53839
H         18.27068       25.22349       31.85260
H         16.71731       26.77857       31.24775
H         16.93986       31.53839       21.21937
H         16.71730       31.24776       26.77857
H         18.27067       31.85261       25.22348
H         23.81626        9.28304       21.23807
H         22.11198        9.28495       19.53680
H         23.81624       21.23809        9.28303
H         22.11197       19.53681        9.28494
H         23.74980       19.70941       31.64420
H         23.52012       25.00511       31.74639
H         21.90044       26.59560       31.34949
H         23.74978       31.64421       19.70940
H         21.90044       31.34950       26.59559
H         23.52011       31.74641       25.00509
H         28.10891       14.44216       14.44247
H         29.27288       14.70703       16.40150
H         29.27288       16.40133       14.70703
H         28.91344       14.36924       26.40172
H         28.91342       26.40174       14.36922
H          9.28494       22.11199       19.53681
H          9.28304       23.81626       21.23809
H         14.35795       11.82732       19.63695
H         14.55620       11.65503       24.66415
H         14.52444       12.99494       26.52452
H         16.37699       11.63496       26.23121
H         14.44224       28.10891       14.44241
H         16.40137       29.27289       14.70704
H         14.70703       29.27289       16.40147
H         14.36925       28.91343       26.40174
H         19.63693       11.82732       14.35795
H         21.21938       16.93986       31.53839
H         19.53679       22.11198        9.28494
H         21.23807       23.81626        9.28303
H         19.70943       23.74978       31.64421
H         26.52433       12.99495       14.52422
H         24.66404       11.65501       14.55618
H         26.23123       11.63498       16.37687
H         26.36892       11.80541       26.36890
H         25.22350       18.27067       31.85259
H         26.77859       16.71729       31.24774
H         25.00512       23.52010       31.74639
H         26.59562       21.90043       31.34948
H         26.40173       28.91343       14.36923
H         31.53839       16.93987       21.21935
H         31.85261       18.27066       25.22346
H         31.24776       16.71729       26.77855
H         31.64421       23.74978       19.70939
H         31.74641       23.52010       25.00509
H         31.34950       21.90043       26.59558
