573

Si        11.39511       16.14476       22.01712
Si        11.34542       21.99186       16.25314
Si        11.38860       21.67208       21.68701
Si        11.33955       21.23525       27.12278
Si        11.32281       27.09422       21.23538
Si        16.25121       11.33504       22.02522
Si        16.44610       16.44272       16.45858
Si        16.50438       16.50166       21.73367
Si        16.54582       16.52995       26.99432
Si        16.16962       21.99618       11.39481
Si        16.50581       21.72501       16.50555
Si        16.51155       21.67123       21.68056
Si        16.54722       21.73167       26.88331
Si        16.53047       26.98676       16.54495
Si        16.53368       26.88603       21.71199
Si        16.44353       26.77510       26.76351
Si        22.05961       11.35032       16.25769
Si        21.68945       11.38465       21.66980
Si        21.23863       11.32117       27.10126
Si        21.93305       16.13887       11.38416
Si        21.72451       16.51178       16.50231
Si        21.67636       16.51251       21.67656
Si        21.71352       16.53267       26.88823
Si        21.68161       21.69594       11.39137
Si        21.67704       21.67707       16.51163
Si        21.68017       21.67932       21.68197
Si        21.70556       21.70625       26.86891
Si        21.86247       21.87133       32.00568
Si        21.24241       27.12367       11.34421
Si        21.73266       26.88339       16.55034
Si        21.70743       26.86748       21.70723
Si        21.66383       26.84288       26.83364
Si        21.87195       32.00520       21.86390
Si        27.11443       11.33306       21.23348
Si        26.98895       16.53969       16.54165
Si        26.88526       16.53996       21.72167
Si        26.76483       16.43966       26.77282
Si        27.10405       21.23223       11.33290
Si        26.88408       21.72190       16.54202
Si        26.86834       21.70324       21.71026
Si        26.83415       21.65929       26.84299
Si        26.77698       26.76680       16.45062
Si        26.84333       26.83347       21.66983
Si        26.83312       26.83050       26.83572
Si        32.00580       21.85954       21.87390
Si        12.67502       17.79309       17.85284
Si        12.63590       17.74412       23.04353
Si        12.64940       23.03158       17.75155
Si        12.66321       22.96429       22.97826
Si        12.56657       22.78907       28.18665
Si        12.55794       28.17671       22.76976
Si        17.84061       12.67563       17.80976
Si        17.75453       12.64580       23.04559
Si        17.82198       17.85091       12.66592
Si        17.76738       17.76490       17.77255
Si        17.80823       17.80959       22.99741
Si        17.85912       17.86624       28.17076
Si        17.75386       23.03942       12.63785
Si        17.81190       22.99265       17.80898
Si        17.80614       22.96817       22.96950
Si        17.83516       23.03314       28.20063
Si        17.86582       28.16600       17.85858
Si        17.82367       28.20407       23.01513
Si        17.69764       28.06434       28.04738
Si        23.06808       12.66631       17.75075
Si        22.97526       12.66132       22.96569
Si        22.77365       12.55760       28.18070
Si        22.99920       17.74314       12.61442
Si        22.99289       17.81455       17.80716
Si        22.96831       17.80559       22.97105
Si        23.01634       17.82275       28.20548
Si        22.97658       22.98123       12.66622
Si        22.97064       22.96804       17.80790
Si        22.97177       22.97013       22.97374
Si        23.00222       23.00444       28.17077
Si        22.79235       28.19037       12.57282
Si        23.03379       28.20117       17.83853
Si        23.00606       28.16905       23.00438
Si        22.97933       28.11547       28.10838
Si        28.18521       12.56517       22.77815
Si        28.16756       17.86613       17.86137
Si        28.20249       17.82623       23.02638
Si        28.04907       17.69290       28.06218
Si        28.17888       22.77878       12.56105
Si        28.20326       23.02159       17.83346
Si        28.17022       22.99897       23.00957
Si        28.10753       22.97457       28.11718
Si        28.06546       28.05034       17.70566
Si        28.11717       28.10669       22.98550
Si        13.83476       13.57840       16.87653
Si        13.96922       13.92295       21.71930
Si        13.90717       19.12216       16.52597
Si        13.92934       19.06231       21.71351
Si        14.02147       19.11258       26.86406
Si        13.93397       24.35486       16.48967
Si        13.92810       24.26512       21.66998
Si        13.87103       24.17326       26.87006
Si        13.70729       29.44147       21.32060
Si        19.13894       13.91470       16.50416
Si        19.07531       13.92371       21.70723
Si        19.11333       13.99159       26.81284
Si        19.11991       19.14506       11.45027
Si        19.08388       19.08584       16.51111
Si        19.09440       19.09389       21.68475
Si        19.13345       19.13367       26.86066
Si        18.83681       18.84489       31.98336
Si        19.09524       24.29510       11.36191
Si        19.09381       24.30114       16.52801
Si        19.10444       24.26860       21.68834
Si        19.10102       24.27504       26.84745
Si        19.20464       29.42400       16.56220
Si        19.13906       29.47989       21.70362
Si        19.02236       29.37144       26.93121
Si        24.37478       13.95542       16.48056
Si        24.27613       13.93186       21.66579
Si        24.16311       13.86352       26.86981
Si        24.26288       19.09325       11.34693
Si        24.29740       19.09292       16.52115
Si        24.26834       19.10496       21.69090
Si        24.26353       19.09394       26.85529
Si        24.28685       24.28978       11.42283
Si        24.25591       24.25086       16.50292
Si        24.26500       24.26101       21.68479
Si        24.26532       24.26619       26.84499
Si        24.45141       29.44172       16.57195
Si        24.33934       29.43394       21.69196
Si        24.26331       29.40682       26.87423
Si        29.45012       13.72139       21.33552
Si        29.42098       19.19173       16.55287
Si        29.47760       19.13998       21.71157
Si        29.35748       19.02078       26.95022
Si        29.44448       24.43439       16.56390
Si        29.43889       24.32727       21.69550
Si        29.40335       24.25564       26.88334
Si        10.09963       20.39068       22.98195
Si        15.17978       15.13558       17.83834
Si        15.19844       15.21889       23.06667
Si        15.56091       15.38490       28.72037
Si        15.22169       20.45340       12.64855
Si        15.22699       20.40507       17.79789
Si        15.22797       20.37106       22.99203
Si        15.26373       20.42523       28.14163
Si        15.45365       25.61514       12.27772
Si        15.26511       25.59632       17.78770
Si        15.21660       25.56484       22.94990
Si        15.16864       25.52033       28.08440
Si        20.39686       10.09438       22.95268
Si        20.41547       15.18063       12.66998
Si        20.41205       15.22878       17.79282
Si        20.37891       15.22673       22.98321
Si        20.38720       15.24115       28.13504
Si        20.40380       20.41940       12.69629
Si        20.38208       20.38283       17.80349
Si        20.38992       20.38896       22.97621
Si        20.42016       20.42007       28.16276
Si        20.33610       25.58408       12.67340
Si        20.41525       25.57758       17.82385
Si        20.39803       25.56629       22.97663
Si        20.36317       25.58732       28.13963
Si        20.41961       30.74682       17.84104
Si        20.48124       30.73188       22.98351
Si        25.55472       15.43475       12.25565
Si        25.60833       15.27859       17.78948
Si        25.56596       15.21893       22.95556
Si        25.50755       15.15994       28.08750
Si        25.56364       20.32642       12.66148
Si        25.57705       20.41091       17.81947
Si        25.56532       20.39627       22.98109
Si        25.57487       20.35745       28.14815
Si        25.55427       25.55291       12.67802
Si        25.53314       25.52544       17.80530
Si        25.55441       25.54912       22.97179
Si        25.54695       25.54808       28.14452
Si        26.04544       30.65474       17.52344
Si        25.82646       30.69396       22.80566
Si        30.74493       20.40970       17.83133
Si        30.72859       20.47537       22.99477
Si        30.66310       26.02296       17.51603
Si        30.69948       25.81299       22.81095
Si        11.44822       19.07091       19.14000
Si        11.35874       19.08840       24.29411
Si        11.35220       24.25728       19.07662
Si        11.41876       24.27305       24.28493
Si        16.81009       13.84130       13.63431
Si        16.52201       13.90134       19.14165
Si        16.49192       13.93092       24.36784
Si        16.50421       19.12525       13.93146
Si        16.50680       19.08178       19.08989
Si        16.52576       19.09092       24.30397
Si        16.56050       19.20599       29.42633
Si        16.51056       24.38012       13.88935
Si        16.53147       24.28641       19.09875
Si        16.49890       24.25420       24.24902
Si        16.56661       24.45043       29.43902
Si        16.54894       29.41938       19.15649
Si        16.55102       29.44302       24.42772
Si        21.70950       13.92906       13.97485
Si        21.71534       13.93270       19.06767
Si        21.67001       13.92610       24.26886
Si        21.32498       13.70771       29.44608
Si        21.70072       19.07094       13.92663
Si        21.68209       19.09649       19.09555
Si        21.68719       19.10337       24.27132
Si        21.70382       19.13872       29.48112
Si        21.67001       24.28312       13.93542
Si        21.68963       24.26762       19.10724
Si        21.68174       24.26405       24.26332
Si        21.68830       24.33851       29.43409
Si        21.35843       29.45761       13.73296
Si        21.71854       29.47441       19.15235
Si        21.68793       29.43898       24.32786
Si        26.82523       14.01037       19.11174
Si        26.86993       13.86729       24.16759
Si        26.84559       19.10074       14.00467
Si        26.85858       19.13475       19.13462
Si        26.84974       19.09482       24.27215
Si        26.93357       19.01940       29.36957
Si        26.87312       24.16735       13.87189
Si        26.85433       24.26562       19.10396
Si        26.84411       24.26254       24.27121
Si        26.87292       24.25967       29.40829
Si        26.95455       29.35728       19.03518
Si        26.88211       29.40214       24.26563
Si        31.98122       18.84188       18.83693
Si        13.62953       16.83802       13.82679
Si        13.93275       16.48637       19.13797
Si        13.88987       16.50690       24.38895
Si        13.93572       21.70251       13.96628
Si        13.93086       21.70212       19.07295
Si        13.93244       21.66295       24.28275
Si        13.72819       21.35874       29.45685
Si        13.99262       26.80590       19.11000
Si        13.86570       26.86973       24.16078
Si        19.10612       11.44404       19.08112
Si        19.08226       11.34808       24.26559
Si        19.11704       16.51321       13.92498
Si        19.08640       16.50391       19.08805
Si        19.09844       16.52929       24.29131
Si        19.15908       16.54945       29.42351
Si        19.06750       21.71580       13.93663
Si        19.09545       21.68177       19.09641
Si        19.10520       21.68793       24.26963
Si        19.14996       21.71872       29.47505
Si        19.11421       26.86116       14.02313
Si        19.13444       26.85817       19.13441
Si        19.09636       26.85522       24.26268
Si        19.02856       26.95432       29.35507
Si        18.84347       31.98133       18.83776
Si        24.29336       11.36632       19.06674
Si        24.28170       11.41674       24.27293
Si        24.35506       16.51544       13.87312
Si        24.29067       16.53744       19.09833
Si        24.24977       16.49675       24.25377
Si        24.43010       16.54975       29.44293
Si        24.27589       21.66691       13.92998
Si        24.26974       21.68620       19.10600
Si        24.26253       21.67949       24.26654
Si        24.32721       21.68574       29.43941
Si        24.17614       26.87446       13.87742
Si        24.27549       26.84823       19.10531
Si        24.26824       26.84273       24.26767
Si        24.26092       26.88054       29.40361
Si        29.42191       16.55500       19.17368
Si        29.44008       16.55569       24.44364
Si        29.44718       21.34112       13.71604
Si        29.47784       21.70987       19.14944
Si        29.43536       21.68145       24.33851
Si        29.37128       26.93525       19.03268
Si        29.40806       26.87108       24.26940
Si        12.64898       15.20408       20.46825
Si        12.28238       15.45119       25.63088
Si        12.61030       20.45456       15.24721
Si        12.68657       20.39423       20.40390
Si        12.67007       20.32991       25.58392
Si        12.57194       25.72561       15.30492
Si        12.65094       25.54563       20.33644
Si        12.67087       25.54889       25.54478
Si        17.82258       15.17129       15.16499
Si        17.79769       15.22318       20.41544
Si        17.78972       15.26418       25.60484
Si        17.79374       20.40868       15.23259
Si        17.80275       20.37989       20.38397
Si        17.82173       20.41350       25.57938
Si        17.83925       20.42073       30.74867
Si        17.78582       25.62839       15.25802
Si        17.82011       25.57603       20.41169
Si        17.80007       25.53227       25.52346
Si        17.51721       26.04453       30.65222
Si        17.82039       30.74226       20.39066
Si        17.50387       30.66151       26.01650
Si        22.98229       10.10265       20.37648
Si        23.05359       15.23200       15.19544
Si        22.98638       15.23246       20.37740
Si        22.95123       15.21513       25.56636
Si        22.96490       20.41255       10.09373
Si        22.98525       20.37514       15.22536
Si        22.97456       20.38969       20.39166
Si        22.97585       20.39635       25.56848
Si        22.98305       20.48043       30.73312
Si        22.96198       25.56809       15.22515
Si        22.97973       25.56378       20.40158
Si        22.96812       25.55294       25.55220
Si        22.80098       25.82520       30.69497
Si        22.99815       30.72700       20.48626
Si        22.80369       30.69774       25.81578
Si        28.72052       15.40005       15.56304
Si        28.13529       15.25291       20.39968
Si        28.08362       15.16311       25.51643
Si        28.13338       20.40765       15.25165
Si        28.16178       20.41819       20.42309
Si        28.14045       20.35699       25.58626
Si        28.09171       25.51014       15.17027
Si        28.14824       25.57550       20.36806
Si        28.14306       25.54379       25.55416
Si        10.09712       22.95070       20.39299
Si        15.25316       12.59526       20.47825
Si        15.30933       12.57177       25.74506
Si        15.15314       17.82387       15.18435
Si        15.23057       17.78705       20.41405
Si        15.25815       17.78380       25.63423
Si        15.22434       23.05514       15.19714
Si        15.22955       22.97872       20.37971
Si        15.22112       22.95884       25.56610
Si        15.38190       28.70675       15.55513
Si        15.24103       28.13024       20.38388
Si        15.16197       28.08793       25.50551
Si        20.49770       12.59386       15.26747
Si        20.40385       12.67753       20.39006
Si        20.33976       12.64902       25.55249
Si        20.40375       17.79718       15.22809
Si        20.38159       17.80268       20.38263
Si        20.41153       17.81888       25.57933
Si        20.39165       17.82196       30.74569
Si        20.40065       22.98935       10.10141
Si        20.37737       22.99236       15.23180
Si        20.39035       22.97374       20.39153
Si        20.39891       22.97850       25.56543
Si        20.48382       22.99775       30.72801
Si        20.42498       28.14021       15.26621
Si        20.42057       28.16090       20.42138
Si        20.36034       28.14777       25.57451
Si        25.76307       12.63269       15.26932
Si        25.56855       12.66292       20.33431
Si        25.54542       12.66814       25.54592
Si        25.61677       17.78121       15.24612
Si        25.57739       17.82339       20.41518
Si        25.52466       17.79700       25.53133
Si        26.01892       17.50271       30.66096
Si        25.56716       22.95417       15.22040
Si        25.56688       22.97441       20.40163
Si        25.55099       22.96520       25.55606
Si        25.81433       22.80076       30.69911
Si        25.52287       28.08792       15.17539
Si        25.58811       28.13968       20.36821
Si        25.55079       28.14116       25.54998
Si        30.74582       17.82765       20.40086
Si        30.65294       17.50756       26.03804
Si        30.73189       22.98550       20.48983
Si        30.69442       22.79474       25.82723
F         11.05555       14.78672       22.94209
F          9.83430       16.60920       21.60379
F          9.83996       21.55683       16.83863
F         10.83167       23.00139       15.03301
F         10.92789       20.00464       28.19537
F          9.81628       21.69309       26.59267
F          9.80231       26.57342       21.71158
F         10.90005       28.15785       20.00094
F         16.83458        9.81818       21.61870
F         15.02418       10.83679       23.03281
F         16.64707       21.57215        9.84258
F         14.81121       22.91513       11.04049
F         23.06368       10.86141       15.02475
F         21.67933        9.82987       16.84961
F         21.71425        9.79979       26.58199
F         20.00455       10.89960       28.16576
F         22.87058       14.79886       11.00840
F         21.44503       16.58807        9.84299
F         22.89203       22.89729       32.83617
F         21.04369       21.06900       33.20619
F         21.70543       26.59449        9.82253
F         20.01110       28.19447       10.92991
F         21.07032       33.20574       21.04434
F         22.89801       32.83513       22.89386
F         28.18296       10.91704       20.00100
F         26.59284        9.80970       21.70023
F         26.57110       21.69695        9.81301
F         28.17178       19.99945       10.91497
F         27.80593       27.80290       27.80916
F         32.83630       22.88566       22.90338
F         33.20586       21.04695       21.06448
F         11.60498       16.82530       16.99384
F         11.54785       23.68121       29.18984
F         11.54102       29.18419       23.65911
F         16.99220       11.59723       16.84401
F         16.85738       17.01195       11.57811
F         16.69236       29.02127       29.00332
F         23.66422       11.54173       29.18816
F         23.68425       29.19508       11.55539
F         22.05803       29.11216       29.09998
F         29.19249       11.54864       23.66818
F         29.00460       16.68712       29.01898
F         29.18303       23.66864       11.54130
F         29.09937       22.05266       29.11311
F         29.02297       29.00667       16.70131
F         29.11393       29.09905       22.06521
F         14.69677       12.25815       16.32058
F         12.90899       14.15061       15.61212
F         12.77341       12.90622       17.98164
F         13.00044       12.93055       22.67484
F         13.10010       18.18934       27.91945
F         12.68790       29.95938       20.08462
F         14.25714       30.89946       21.91400
F         18.20748       12.96905       27.78027
F         18.21608       20.02054       10.40562
F         20.01374       18.26573       10.40071
F         17.67333       17.70182       32.41002
F         19.42142       19.40625       33.44659
F         18.24368       25.31236       10.33013
F         18.42071       30.45786       15.49986
F         19.84917       30.25568       28.09527
F         25.27906       18.25285       10.30537
F         25.25718       23.47129       10.38604
F         23.46600       25.25961       10.38767
F         23.69915       30.63523       15.71989
F         25.22418       30.34904       27.88865
F         30.90619       14.27248       21.93191
F         29.97463       12.70737       20.09801
F         30.44216       18.38397       15.49440
F         30.23805       19.84858       28.11634
F         30.63320       23.67715       15.70924
F         30.34519       25.21623       27.89837
F          9.10291       19.43017       22.02381
F          9.12203       21.38065       23.92899
F         13.91089       15.18278       28.59930
F         15.78962       16.08214       30.22250
F         16.22748       13.85721       28.89196
F         14.28338       19.57989       11.56494
F         13.78056       25.54350       12.39001
F         15.79836       25.07025       10.72766
F         16.00225       27.18660       12.16848
F         14.18268       26.52797       29.00770
F         21.37637        9.11030       23.90404
F         19.45448        9.10417       21.97104
F         19.48839       14.17333       11.69093
F         21.36507       31.74155       16.86646
F         19.59773       31.84845       23.82527
F         25.02847       15.82739       10.71075
F         25.39697       13.76533       12.34451
F         27.15260       15.89981       12.17107
F         26.51399       14.17304       29.01109
F         26.52399       26.52114       11.69718
F         25.58944       32.15505       18.11065
F         27.18829       31.01996       16.33950
F         25.21332       32.03276       23.57036
F         26.94215       31.35565       21.74325
F         31.73957       21.35291       16.85446
F         31.84182       19.58458       23.83338
F         31.02962       27.16676       16.33340
F         32.16355       25.55654       18.09440
F         31.36399       26.92780       21.74944
F         32.03643       25.19868       23.57786
F         10.44981       18.16213       20.05707
F         10.34585       19.83310       18.20303
F         10.32526       18.23901       25.31139
F         10.31889       25.21256       18.15535
F         10.38929       23.45249       25.26033
F         10.37376       25.22697       23.45882
F         16.45022       14.68543       12.23606
F         15.39371       13.13311       14.16186
F         17.82292       12.61495       13.11218
F         15.49693       18.42390       30.46033
F         15.71680       23.69731       30.63340
F         15.53741       30.42055       18.26166
F         15.68739       30.62675       23.67132
F         22.66197       12.94296       12.99697
F         20.08918       12.68851       29.96471
F         21.91795       14.25742       30.90436
F         20.11994       29.98457       12.72152
F         21.96035       30.91473       14.27500
F         27.81149       13.00654       18.20457
F         27.87619       18.15928       13.07082
F         28.09713       19.84683       30.25390
F         27.88745       25.22029       30.35064
F         28.12062       30.23638       19.86454
F         27.89588       30.34326       25.22826
F         33.44435       19.41521       19.41007
F         32.40755       17.69162       17.68045
F         12.95801       17.93174       12.75322
F         12.30274       16.28468       14.67764
F         14.24618       15.57989       12.91609
F         12.94298       22.65464       12.99444
F         14.26656       21.96386       30.91403
F         12.71837       20.11943       29.98490
F         12.96893       27.77120       18.20312
F         19.90396       10.39433       18.12001
F         18.14851       10.39117       19.87867
F         18.16220       10.31519       25.22270
F         18.26742       15.53685       30.42631
F         18.18926       27.91430       13.10060
F         19.85762       28.12008       30.23491
F         17.70112       32.40886       17.67389
F         19.40428       33.44378       19.42474
F         25.26112       10.35536       18.13199
F         25.24986       10.38299       23.44976
F         23.45507       10.37500       25.22943
F         23.67458       15.68689       30.62760
F         25.22282       27.89479       30.34497
F         30.42986       15.52201       18.31367
F         30.62926       15.69550       23.69232
F         30.90536       21.94252       14.25605
F         29.96934       20.10250       12.70217
F         30.25469       28.09881       19.86104
F         30.34981       27.88440       25.23189
F         11.56772       14.26412       19.59335
F         12.39555       13.77819       25.56033
F         10.73083       15.79426       25.08881
F         12.17633       15.99957       27.20235
F         11.58834       19.54178       14.27090
F         13.44680       26.86499       14.48285
F         11.51573       26.55479       16.31511
F         11.68642       24.98605       14.08741
F         11.68719       26.51769       26.51106
F         16.86418       21.36643       31.74277
F         18.10470       25.58739       32.15200
F         16.33289       27.18682       31.01802
F         16.83681       31.73812       21.32557
F         16.32125       31.02719       27.16059
F         18.07982       32.16249       25.54886
F         23.93475        9.12059       21.35678
F         22.00501        9.10862       19.43401
F         23.91973       21.40172        9.12316
F         22.00443       19.46362        9.08841
F         23.82442       19.59650       31.84984
F         23.56630       25.21169       32.03336
F         21.73765       26.94059       31.35596
F         23.83770       31.83923       19.59535
F         21.74209       31.36099       26.93112
F         23.57000       32.03608       25.20395
F         28.66621       15.34887       13.89937
F         28.81152       13.81790       16.11153
F         30.23116       16.03566       15.90005
F         29.00609       14.17583       26.52352
F         29.01666       26.51670       14.18478
F          9.10593       21.96898       19.45184
F          9.11388       23.90455       21.37086
F         14.28374       11.56129       19.57248
F         14.08558       11.68526       25.01723
F         14.49108       13.45023       26.88385
F         16.32181       11.51617       26.57238
F         15.18169       28.57913       13.90546
F         16.07735       30.21035       15.77951
F         13.85327       28.87774       16.21953
F         14.17484       29.01170       26.51157
F         19.63752       11.50772       14.31935
F         21.32707       16.83924       31.74198
F         19.44295       22.03167        9.10182
F         21.38989       23.93913        9.12589
F         19.59345       23.83797       31.84033
F         26.84161       13.55460       14.40754
F         25.04057       11.70468       14.07394
F         26.64400       11.61180       16.27358
F         26.51244       11.68377       26.51326
F         25.55135       18.08131       32.16089
F         27.16265       16.32016       31.02796
F         25.20160       23.56861       32.03625
F         26.92888       21.73834       31.36271
F         26.53083       29.01158       14.19011
F         31.74210       16.84703       21.33845
F         32.15344       18.09286       25.58039
F         31.01778       16.32340       27.18080
F         31.84758       23.82821       19.60622
F         32.03407       23.55922       25.21574
F         31.35486       21.73168       26.94301
