   62
Geometry Step: 300
   Si     11.75966026     20.98099183     28.07784146      3.09110949
   Si     14.29876647     13.42114377     26.83764336      3.09117559
   Si     18.78878728     19.64639497     24.34340628      3.09111307
   Si     16.50115684     18.06081591     29.32507302      4.05895452
   Si     12.93579698     20.85464247     30.18977922      3.93837316
   Si     15.53867918     13.57008059     28.91118366      3.93831449
   Si     19.78611182     19.72211391     26.54773631      3.93837666
   Si     17.65173828     18.09392728     31.47890186      4.74996414
   Si     13.14631600     17.16895314     27.39016014      3.70326671
   Si     15.16913556     21.72447246     29.92451579      3.01671228
   Si     17.75694199     14.25915208     28.27519435      3.01600560
   Si     19.50095321     19.60314608     31.39643731      2.49869701
   Si     16.51063359     18.91039215     24.68652592      3.77222319
   Si     14.23772704     17.21312101     29.57993148      4.55388017
   Si     16.50541308     16.66668400     25.60343527      3.70327027
   Si     14.34116099     14.96604959     30.47067480      3.01672810
   Si     18.49193890     21.34135560     27.77376697      3.01600376
   Si     16.15212955     18.80203408     33.19756603      2.49872922
   Si     15.18853816     20.21262397     26.25243521      3.70325288
   Si     12.70924609     18.56625158     30.90550345      3.01599201
   Si     19.92354343     17.48995562     27.44978174      3.01671360
   Si     18.45955189     15.90988680     32.00938789      2.49876702
   Si     12.91325321     19.45314575     26.59990350      3.77221933
   Si     17.68049285     16.63465604     27.74969184      4.55387235
   Si     14.31985902     15.65351635     25.90686432      3.77217335
   Si     16.37942583     20.30014458     28.38840200      4.55388974
    F     10.22707301     20.61862547     28.20501343      7.33535828
    F     11.80131740     22.44045870     27.47007923      7.34160251
    F     14.90887253     12.36742229     25.83073753      7.33535701
    F     12.80506831     12.96105177     27.07947502      7.34160296
    F     18.84235935     21.03751163     23.59622476      7.33536075
    F     19.53888575     18.62670354     23.39536206      7.34160543
    F     12.17759988     21.78304157     31.25202484      7.29658062
    F     15.63964438     12.10540767     29.55126935      7.29658840
    F     21.28039156     20.28246427     26.41237792      7.29658292
    F     11.70768405     16.57070304     27.68914576      7.28472258
    F     15.11707425     23.18606485     29.33087296      7.34224313
    F     16.00409895     21.84850928     31.25971753      7.34719732
    F     18.98139842     13.88269709     29.19212401      7.33121032
    F     18.06263236     13.54190846     26.89867095      7.35447437
    F     19.98178824     19.75511615     29.89861251      7.42538067
    F     20.67738389     19.02545453     32.27087320      7.40445391
    F     19.09096262     21.01715822     31.95212309      7.39855784
    F     15.70699723     18.85924793     23.31722973      7.27827238
    F     17.38686214     15.73650864     24.66810172      7.28472870
    F     14.95613339     15.02899887     31.92435086      7.34719572
    F     12.87054926     14.42694044     30.66570693      7.34223591
    F     18.10774410     22.47315924     26.73737109      7.35447847
    F     19.15362998     22.11874664     28.97360811      7.33122179
    F     15.00605964     19.68219847     32.55752218      7.42538949
    F     16.94651884     19.65952253     34.25402130      7.40445472
    F     15.50694570     17.56160063     33.91970318      7.39855974
    F     15.14897632     21.72395480     25.77158075      7.28472072
    F     12.77426665     18.22143567     32.44129491      7.33121762
    F     11.26167000     18.10786233     30.46153995      7.35448006
    F     20.69654631     17.36703282     28.82189794      7.34720359
    F     20.69965363     16.54601383     26.45077790      7.34223907
    F     19.96146731     15.74909598     31.56796689      7.39855631
    F     17.58072332     14.83332477     31.25661762      7.42539990
    F     18.35097418     15.68357064     33.56486371      7.40445193
    F     12.21647532     19.39130991     25.17371021      7.27826598
    F     13.57712421     15.70180574     24.50350771      7.27827118
